119
Energy -422.4486484173349 kcal/mol Converged!
  N    0.626262363   7.813887962   3.422826600
  H    1.123440009   8.577638219   2.959907607
  C   -0.615560862   8.175264115   4.138111126
  H   -1.409385117   7.408659525   3.879580033
  C   -0.415217359   8.145561532   5.679893879
  C   -1.052887708   9.566777046   3.670888906
  H    0.652847022   8.245305697   5.952205320
  H   -0.998305702   8.922681466   6.208444927
  O   -0.941635952   6.928542358   6.190511024
  O   -0.319873392  10.359119893   3.105606312
  H   -0.494376107   6.152040669   5.731394879
  N   -2.400745223   9.868850805   3.908173726
  H   -2.983110181   9.290171943   4.515967867
  C   -2.907092833  11.214776097   3.597051920
  H   -2.126434160  11.760592764   2.975274073
  C   -4.197065045  11.128133474   2.743919321
  C   -3.158299959  11.954990601   4.920811628
  H   -4.100369253  10.326791681   1.979516128
  H   -5.103558170  10.961127107   3.345982244
  O   -4.274720166  12.338922925   1.992345136
  O   -3.436840878  11.387833192   5.968969902
  H   -4.994063843  12.927197580   2.339982932
  N   -3.104655383  13.351971937   4.864031753
  H   -2.747008879  13.829441389   4.019575774
  C   -3.052442043  14.130487943   6.124885327
  H   -2.508987895  13.537346347   6.915015086
  C   -2.341609799  15.503398106   5.942957913
  C   -4.519450210  14.349184840   6.564491918
  H   -2.980744386  16.140437045   5.275200322
  C   -2.250169482  16.194320320   7.306946513
  C   -0.944450213  15.336493495   5.309501692
  O   -5.170395979  15.344384055   6.266831632
  H   -1.795344349  17.191040898   7.215668848
  H   -3.242799886  16.359335414   7.748244900
  H   -1.646112013  15.635330934   8.030315580
  H   -0.251577972  16.099019785   5.727399911
  H   -0.489828895  14.369568362   5.605902612
  C   -0.961463301  15.470724821   3.788539676
  H   -1.272371223  16.474148453   3.469182648
  H    0.038798746  15.301697743   3.363255643
  H   -1.632501568  14.748756850   3.300039172
  N   -5.095753957  13.293208848   7.259370171
  H   -4.565426730  12.413369183   7.380785725
  C   -6.398088637  13.384050091   7.965339633
  H   -6.866853850  12.356705932   7.954310446
  C   -6.186363485  13.800614796   9.458598805
  C   -7.338037542  14.335912811   7.209193193
  H   -5.466736690  13.059534098   9.898775156
  C   -5.585003939  15.198697864   9.589518346
  C   -7.516959925  13.698592752  10.206493032
  O   -7.898491301  15.311486891   7.683637186
  H   -6.201257770  15.956224561   9.079942693
  H   -5.507866799  15.506996601  10.639323158
  H   -4.578862004  15.261171188   9.163450558
  H   -7.388373202  13.927733220  11.272608976
  H   -8.248350613  14.422649186   9.816292634
  H   -7.964532151  12.701667957  10.148477485
  N   -7.638740367  13.971175813   5.864703176
  H   -7.206365187  13.124278390   5.464637890
  C   -7.775204552  15.071252061   4.884726777
  H   -7.208057146  15.990025335   5.259730165
  C   -7.189751187  14.650017713   3.509233236
  C   -9.245024994  15.480887488   4.746018612
  H   -7.927094394  14.110353646   2.875157505
  H   -6.797480416  15.526111706   2.958787171
  O   -6.154593920  13.683815431   3.690413731
  O   -9.782551694  15.536693512   3.608861050
  H   -5.458996689  13.989617571   4.320655497
  N   -9.916115983  15.846212558   5.885337188
  H   -9.419154465  15.796913688   6.820354870
  C  -11.359698716  16.165242805   5.889124124
  H  -11.933488671  15.357997402   5.330283614
  C  -11.898404101  16.256937912   7.324089903
  C  -11.508600422  17.462838544   5.066568403
  H  -11.425619209  17.095538365   7.881596449
  H  -12.991098677  16.481339517   7.303358112
  C  -11.695953027  14.965402113   8.082707519
  O  -11.424201777  17.385407038   3.769717373
  C  -12.104166233  13.742268698   7.530035976
  C  -11.117732133  14.995942097   9.359011355
  H  -12.580209761  13.705093671   6.552442746
  C  -11.912990837  12.556071445   8.242746338
  C  -10.952789547  13.807665913  10.077782108
  H  -10.800300146  15.938124870   9.804030622
  H  -12.222711253  11.603974116   7.807461466
  C  -11.335869427  12.586375294   9.516664426
  H  -10.529315594  13.837046748  11.083678270
  H  -11.196025403  11.660064002  10.075555093
  N  -11.703427534  18.677958003   5.600168241
  H  -11.831931252  18.803643518   6.612047380
  C  -11.541383884  19.925162502   4.795673390
  H  -12.141489882  19.821673910   3.848562497
  C  -12.006516466  21.136873763   5.623310806
  C  -10.028415945  20.037878734   4.446860967
  H  -11.220900128  21.432093244   6.354499707
  H  -12.104775378  22.028023004   4.963763257
  C  -13.315135852  20.885582111   6.320818971
  O   -9.209455608  19.267322364   4.919630513
  C  -14.505992877  20.809321354   5.583790924
  C  -13.349399821  20.734249507   7.720813990
  H  -14.493235629  20.952612651   4.502243590
  C  -15.722534437  20.555968984   6.217954177
  C  -14.547261004  20.481947429   8.375970330
  H  -12.434130971  20.833171199   8.307286952
  H  -16.643866703  20.501156876   5.641425745
  C  -15.729143952  20.393382847   7.612011362
  H  -14.605387580  20.374126742   9.460502604
  O  -16.857688026  20.131393123   8.333814253
  H  -17.683326273  20.140504791   7.782071769
  C    1.089696054   6.491465420   3.433710772
  O    0.482040818   5.631449398   4.056284167
  C    2.339193787   6.242176764   2.648953233
  H    2.615961240   5.173618183   2.712767169
  H    2.222384869   6.473423435   1.580033467
  H    3.199640116   6.813472733   3.025872800
  N   -9.661746635  21.041530958   3.578518755
  H   -8.683845163  21.145152360   3.327272941
  H  -10.297899896  21.688731977   3.148359261
  H  -10.855286268  16.413803021   3.426101790
